<?xml version="1.0" encoding="UTF-8"?>

<!-- generated on 03/22/21 17:29:22 by Eclipse SUMO polyconvert Version 1.8.0
<configuration xmlns:xsi="http://www.w3.org/2001/XMLSchema-instance" xsi:noNamespaceSchemaLocation="http://sumo.dlr.de/xsd/polyconvertConfiguration.xsd">

    <input>
        <net-file value="test.net.xml"/>
        <osm-files value="map.osm"/>
        <type-file value="typemap.xml"/>
    </input>

    <output>
        <output-file value="map.poly.xml"/>
    </output>

    <processing>
        <poi-layer-offset value="5"/>
    </processing>

    <report>
        <xml-validation value="never"/>
    </report>

</configuration>
-->

<additional xmlns:xsi="http://www.w3.org/2001/XMLSchema-instance" xsi:noNamespaceSchemaLocation="http://sumo.dlr.de/xsd/additional_file.xsd">
    <location netOffset="-568136.94,-4514429.65" convBoundary="-6795.08,-4961.52,10165.64,18205.74" origBoundary="-74.271755,40.733020,-74.072443,40.941702" projParameter="+proj=utm +zone=18 +ellps=WGS84 +datum=WGS84 +units=m +no_defs"/>

    <poly id="116136386" type="tourism" color="207,245,201" fill="1" layer="-2.00" shape="2053.381295,3192.599926 2049.398207,3182.981310 1985.369475,3207.275070 1979.883480,3200.462085 1971.571284,3206.133975 1979.856910,3227.283652 2053.381295,3192.599926"/>
    <poly id="189307339" type="building" color="255,230,230" fill="1" layer="-1.00" shape="4687.338320,3680.784729 4695.471581,3705.433233 4678.370958,3718.553704 4681.723809,3722.416864 4678.998593,3724.199624 4681.313466,3733.248225 4724.334887,3707.305187 4721.277360,3703.433816 4729.623721,3697.887433 4724.584191,3689.711214 4714.810559,3694.577428 4714.381797,3691.864353 4719.603474,3690.117307 4716.521001,3681.072232 4709.060579,3672.894374 4687.338320,3680.784729"/>
    <poly id="189307441" type="building" color="255,230,230" fill="1" layer="-1.00" shape="4730.780835,3743.094464 4738.514560,3740.650571 4736.035360,3732.877043 4728.301628,3735.320939 4730.780835,3743.094464"/>
    <poly id="189307442" type="building" color="255,230,230" fill="1" layer="-1.00" shape="4681.167303,3742.949800 4688.448669,3768.444751 4711.718425,3761.846364 4708.579317,3750.846808 4713.163901,3749.548657 4709.013288,3735.053153 4681.167303,3742.949800"/>
    <poly id="192558874" type="building" color="255,230,230" fill="1" layer="-1.00" shape="4139.018524,3744.180020 4154.135489,3740.586501 4145.528782,3704.654545 4130.411749,3708.248082 4139.018524,3744.180020"/>
    <poly id="192558876" type="building" color="255,230,230" fill="1" layer="-1.00" shape="4119.753620,3749.287285 4133.923653,3745.917609 4125.933013,3712.534019 4121.249152,3713.642830 4121.038323,3712.774827 4116.109219,3713.947856 4116.295613,3714.726805 4111.730051,3715.814575 4119.753620,3749.287285"/>
    <poly id="192558898" type="parking" color="184,184,179" fill="1" layer="-1.00" shape="4191.963339,3763.337766 4241.268957,3751.830314 4235.439862,3746.710816 4234.101952,3719.664758 4231.719747,3716.577334 4230.147773,3699.653858 4170.664073,3699.604754 4163.702509,3700.735671 4173.622902,3745.506452 4190.142352,3744.269210 4191.963339,3763.337766"/>
    <poly id="192558899" type="leisure" color="207,245,201" fill="1" layer="-2.00" shape="4227.956399,3936.456715 4262.549160,3987.108933 4272.116470,3981.707226 4279.633629,3975.497217 4285.744987,3968.141057 4290.182841,3961.134866 4293.856909,3953.743732 4296.775069,3944.302456 4297.754077,3936.496354 4298.093565,3927.673720 4296.753220,3919.844894 4294.137099,3911.370764 4291.269254,3902.760947 4284.934077,3893.351138 4250.402772,3914.783646 4231.822125,3922.406327 4227.956399,3936.456715"/>
    <poly id="192558899#1" type="sport" color="79,230,125" fill="1" layer="-2.00" shape="4227.956399,3936.456715 4262.549160,3987.108933 4272.116470,3981.707226 4279.633629,3975.497217 4285.744987,3968.141057 4290.182841,3961.134866 4293.856909,3953.743732 4296.775069,3944.302456 4297.754077,3936.496354 4298.093565,3927.673720 4296.753220,3919.844894 4294.137099,3911.370764 4291.269254,3902.760947 4284.934077,3893.351138 4250.402772,3914.783646 4231.822125,3922.406327 4227.956399,3936.456715"/>
    <poly id="192558901" type="leisure" color="207,245,201" fill="1" layer="-2.00" shape="3854.465927,3850.434715 3867.083871,3848.770202 3879.322937,3845.303526 3889.525072,3840.529213 3899.876014,3833.469388 3908.816097,3826.640069 3920.351332,3816.638728 3929.684733,3808.403335 3937.737355,3800.033348 3942.440441,3791.752832 3944.181511,3784.475909 3942.844218,3777.157871 3939.242388,3764.189133 3854.313051,3787.308275 3851.698258,3791.634727 3842.975396,3816.007105 3854.465927,3850.434715"/>
    <poly id="192558901#1" type="sport" color="79,230,125" fill="1" layer="-2.00" shape="3854.465927,3850.434715 3867.083871,3848.770202 3879.322937,3845.303526 3889.525072,3840.529213 3899.876014,3833.469388 3908.816097,3826.640069 3920.351332,3816.638728 3929.684733,3808.403335 3937.737355,3800.033348 3942.440441,3791.752832 3944.181511,3784.475909 3942.844218,3777.157871 3939.242388,3764.189133 3854.313051,3787.308275 3851.698258,3791.634727 3842.975396,3816.007105 3854.465927,3850.434715"/>
    <poly id="192558905" type="leisure" color="207,245,201" fill="1" layer="-2.00" shape="4238.589810,3628.285111 4240.673162,3629.160346 4242.845748,3629.536873 4258.962820,3625.487077 4260.756057,3624.116907 4261.733226,3622.527812 4262.195792,3620.944779 4262.046562,3618.956090 4250.993644,3575.306489 4250.148266,3572.911319 4248.865233,3571.277891 4246.966335,3570.515478 4244.843796,3570.194949 4228.878867,3574.201861 4227.248486,3575.307188 4226.020241,3576.693998 4225.172157,3578.883860 4225.147169,3581.437036 4236.111144,3624.708262 4237.155292,3626.616896 4238.589810,3628.285111"/>
    <poly id="192558908" type="leisure" color="207,245,201" fill="1" layer="-2.00" shape="4202.615067,3611.779881 4213.413352,3609.065676 4207.566091,3585.961063 4196.776319,3588.664259 4202.615067,3611.779881"/>
    <poly id="192558908#1" type="sport" color="79,230,125" fill="1" layer="-2.00" shape="4202.615067,3611.779881 4213.413352,3609.065676 4207.566091,3585.961063 4196.776319,3588.664259 4202.615067,3611.779881"/>
    <poly id="192558910" type="leisure" color="207,245,201" fill="1" layer="-2.00" shape="4164.626995,3596.709481 4153.871535,3599.357565 4159.625955,3622.483428 4170.381384,3619.835352 4164.626995,3596.709481"/>
    <poly id="192558910#1" type="sport" color="79,230,125" fill="1" layer="-2.00" shape="4164.626995,3596.709481 4153.871535,3599.357565 4159.625955,3622.483428 4170.381384,3619.835352 4164.626995,3596.709481"/>
    <poly id="192558912" type="leisure" color="207,245,201" fill="1" layer="-2.00" shape="4205.411501,3879.427984 4269.214417,3864.632140 4243.599346,3755.039354 4179.795548,3769.835428 4205.411501,3879.427984"/>
    <poly id="192558912#1" type="sport" color="79,230,125" fill="1" layer="-2.00" shape="4205.411501,3879.427984 4269.214417,3864.632140 4243.599346,3755.039354 4179.795548,3769.835428 4205.411501,3879.427984"/>
    <poly id="192558914" type="leisure" color="207,245,201" fill="1" layer="-2.00" shape="4188.333578,3615.303767 4199.122657,3612.667164 4193.419066,3589.530663 4182.629956,3592.167275 4188.333578,3615.303767"/>
    <poly id="192558914#1" type="sport" color="79,230,125" fill="1" layer="-2.00" shape="4188.333578,3615.303767 4199.122657,3612.667164 4193.419066,3589.530663 4182.629956,3592.167275 4188.333578,3615.303767"/>
    <poly id="192558916" type="leisure" color="207,245,201" fill="1" layer="-2.00" shape="4174.025931,3618.916239 4184.883343,3616.191469 4179.052978,3593.075944 4168.195535,3595.800723 4174.025931,3618.916239"/>
    <poly id="192558916#1" type="sport" color="79,230,125" fill="1" layer="-2.00" shape="4174.025931,3618.916239 4184.883343,3616.191469 4179.052978,3593.075944 4168.195535,3595.800723 4174.025931,3618.916239"/>
    <poly id="192558918" type="leisure" color="207,245,201" fill="1" layer="-2.00" shape="4068.631497,3505.458043 3998.938448,3535.785158 4026.437823,3614.387958 4098.314187,3589.322504 4068.631497,3505.458043"/>
    <poly id="192558918#1" type="sport" color="79,230,125" fill="1" layer="-2.00" shape="4068.631497,3505.458043 3998.938448,3535.785158 4026.437823,3614.387958 4098.314187,3589.322504 4068.631497,3505.458043"/>
    <poly id="192558920" type="parking" color="184,184,179" fill="1" layer="-1.00" shape="4171.580104,3668.040112 4302.278102,3681.376093 4300.792498,3677.176146 4293.167136,3655.652699 4289.769171,3646.038530 4199.691032,3637.340988 4174.738113,3634.932040 4171.580104,3668.040112"/>
    <poly id="192558922" type="parking" color="184,184,179" fill="1" layer="-1.00" shape="4146.089587,3775.844955 4165.925687,3770.976484 4161.039329,3743.629299 4151.666213,3704.992097 4149.053514,3705.632661 4157.783785,3741.865579 4138.558783,3746.340382 4146.089587,3775.844955"/>
    <poly id="192756756" type="leisure" color="207,245,201" fill="1" layer="-2.00" shape="4100.668385,3588.379646 4185.979169,3560.215671 4146.481840,3472.569081 4141.235217,3469.964372 4071.137126,3503.695120 4100.668385,3588.379646"/>
    <poly id="192756756#1" type="sport" color="79,230,125" fill="1" layer="-2.00" shape="4100.668385,3588.379646 4185.979169,3560.215671 4146.481840,3472.569081 4141.235217,3469.964372 4071.137126,3503.695120 4100.668385,3588.379646"/>
    <poly id="213281456" type="building" color="255,230,230" fill="1" layer="-1.00" shape="5657.523654,3897.010609 5673.276754,3916.773798 5684.049382,3909.043428 5681.367423,3905.630573 5688.897310,3899.966088 5695.712010,3908.482678 5700.837105,3904.592694 5712.125760,3918.671623 5730.918068,3904.382506 5711.754133,3879.877920 5713.192579,3878.582267 5701.794321,3863.647399 5680.802245,3879.446685 5657.523654,3897.010609"/>
    <poly id="213287652" type="building" color="255,230,230" fill="1" layer="-1.00" shape="5726.271815,3927.883186 5733.862273,3938.106152 5755.175907,3922.199211 5747.251427,3911.639828 5738.175305,3918.410094 5726.271815,3927.883186"/>
    <poly id="213287654" type="parking" color="184,184,179" fill="1" layer="-1.00" shape="5701.173866,3972.217648 5690.758673,3950.920128 5726.271815,3927.883186 5737.691899,3943.995114 5701.173866,3972.217648"/>
    <poly id="213287656" type="parking" color="184,184,179" fill="1" layer="-1.00" shape="5690.758673,3950.920128 5726.271815,3927.883186 5747.251427,3911.639828 5742.792672,3904.556673 5744.295039,3902.773181 5745.323437,3901.995224 5747.481443,3900.440323 5744.017353,3895.110103 5730.918068,3904.382506 5712.125760,3918.671623 5700.837105,3904.592694 5695.712010,3908.482678 5688.897310,3899.966088 5681.367423,3905.630573 5684.049382,3909.043428 5673.276754,3916.773798 5668.102851,3920.485682 5690.758673,3950.920128"/>
    <poly id="213287657" type="parking" color="184,184,179" fill="1" layer="-1.00" shape="5713.192579,3878.582267 5723.761777,3870.960940 5712.234016,3855.480770 5701.794321,3863.647399 5713.192579,3878.582267"/>
    <poly id="213287659" type="building" color="255,230,230" fill="1" layer="-1.00" shape="5735.859071,3852.230806 5787.038615,3919.253794 5807.878891,3903.464389 5756.699418,3836.441258 5735.859071,3852.230806"/>
    <poly id="213288430" type="building" color="255,230,230" fill="1" layer="-1.00" shape="5794.634199,3934.017548 5815.649962,3961.394071 5861.573415,3926.427464 5865.020437,3930.924928 5882.674299,3917.479641 5892.274482,3929.987683 5911.560298,3915.304291 5898.446419,3898.220362 5927.923649,3875.767836 5906.974846,3848.458276 5794.634199,3934.017548"/>
    <poly id="213288432" type="building" color="255,230,230" fill="1" layer="-1.00" shape="5721.585166,3829.629078 5729.576470,3840.266810 5746.980928,3827.296091 5738.989633,3816.658340 5721.585166,3829.629078"/>
    <poly id="213288433" type="building" color="255,230,230" fill="1" layer="-1.00" shape="5793.933094,3776.385929 5811.412763,3799.774790 5849.297180,3771.688573 5831.817670,3748.288522 5793.933094,3776.385929"/>
    <poly id="213289030" type="amenity" color="237,199,199" fill="1" layer="-1.00" shape="6047.658952,3557.033945 6054.226689,3552.326031 6041.806398,3535.859429 6035.355068,3540.735049 6047.658952,3557.033945"/>
    <poly id="213289030#1" type="building" color="255,230,230" fill="1" layer="-1.00" shape="6047.658952,3557.033945 6054.226689,3552.326031 6041.806398,3535.859429 6035.355068,3540.735049 6047.658952,3557.033945"/>
    <poly id="213487260" type="building" color="255,230,230" fill="1" layer="-1.00" shape="6815.955360,3374.950835 6811.045521,3365.830802 6818.634974,3361.089502 6819.040847,3361.826343 6823.658245,3359.019959 6825.030270,3361.809347 6826.664914,3361.992448 6829.484766,3366.750453 6815.955360,3374.950835"/>
    <poly id="213487261" type="building" color="255,230,230" fill="1" layer="-1.00" shape="6825.532763,3360.504415 6823.039495,3355.982863 6823.946960,3355.503578 6823.295693,3354.841963 6829.565292,3351.319606 6832.540342,3356.578772 6825.532763,3360.504415"/>
    <poly id="213487263" type="building" color="255,230,230" fill="1" layer="-1.00" shape="6815.434421,3377.243651 6818.845485,3382.762575 6834.935654,3374.088576 6831.428447,3368.069083 6815.434421,3377.243651"/>
    <poly id="213487265" type="building" color="255,230,230" fill="1" layer="-1.00" shape="6806.617438,3361.611600 6801.011100,3351.296610 6813.008780,3344.412904 6818.716323,3354.728929 6806.617438,3361.611600"/>
    <poly id="213487267" type="building" color="255,230,230" fill="1" layer="-1.00" shape="6828.634077,3399.903252 6827.387004,3397.270556 6826.362134,3397.682039 6824.857975,3394.613762 6825.629806,3394.199714 6823.707289,3390.794140 6835.595501,3383.887157 6838.187491,3388.653957 6833.995891,3391.064980 6836.330682,3395.407299 6828.634077,3399.903252"/>
    <poly id="214312194" type="building" color="255,230,230" fill="1" layer="-1.00" shape="6202.581531,3904.380864 6241.188994,3875.793211 6230.685743,3861.710252 6245.583221,3850.680506 6190.918624,3777.435470 6137.413439,3817.053318 6202.581531,3904.380864"/>
    <poly id="214312194#1" type="commercial" color="209,209,204" fill="1" layer="-3.00" shape="6202.581531,3904.380864 6241.188994,3875.793211 6230.685743,3861.710252 6245.583221,3850.680506 6190.918624,3777.435470 6137.413439,3817.053318 6202.581531,3904.380864"/>
    <poly id="214312194#2" type="shop" color="237,199,255" fill="1" layer="-1.00" shape="6202.581531,3904.380864 6241.188994,3875.793211 6230.685743,3861.710252 6245.583221,3850.680506 6190.918624,3777.435470 6137.413439,3817.053318 6202.581531,3904.380864"/>
    <poly id="214312195" type="building" color="255,230,230" fill="1" layer="-1.00" shape="6109.676152,3806.427741 6125.945418,3828.450784 6091.249857,3853.892062 6074.972003,3831.880111 6109.676152,3806.427741"/>
    <poly id="214312195#1" type="commercial" color="209,209,204" fill="1" layer="-3.00" shape="6109.676152,3806.427741 6125.945418,3828.450784 6091.249857,3853.892062 6074.972003,3831.880111 6109.676152,3806.427741"/>
    <poly id="214312197" type="building" color="255,230,230" fill="1" layer="-1.00" shape="6063.202325,3849.813661 6093.148965,3889.892385 6058.918343,3915.271865 6026.141784,3871.401348 6031.113265,3867.709883 6033.951542,3871.501900 6063.202325,3849.813661"/>
    <poly id="214312198" type="building" color="255,230,230" fill="1" layer="-1.00" shape="6076.738399,3984.460139 6095.400302,3970.614702 6102.741318,3980.424785 6084.079313,3994.281305 6076.738399,3984.460139"/>
    <poly id="214312264" type="building" color="255,230,230" fill="1" layer="-1.00" shape="5993.032945,3929.609588 6006.425629,3919.707777 6022.921430,3941.854989 6009.528762,3951.756770 5993.032945,3929.609588"/>
    <poly id="214313591" type="building" color="255,230,230" fill="1" layer="-1.00" shape="6317.004491,3638.542613 6320.190460,3637.120348 6320.853919,3638.248321 6322.894541,3637.480637 6323.402777,3638.107462 6326.582102,3636.507502 6314.944820,3612.721051 6306.130956,3617.650363 6317.004491,3638.542613"/>
    <poly id="214313593" type="parking" color="184,184,179" fill="1" layer="-1.00" shape="6317.004491,3638.542613 6326.178486,3657.319505 6327.373990,3656.709839 6329.488973,3660.283750 6341.690445,3650.659180 6344.425156,3653.839670 6357.023634,3644.163614 6347.658162,3631.002317 6335.708194,3638.264706 6326.582102,3636.507502 6323.402777,3638.107462 6322.894541,3637.480637 6320.853919,3638.248321 6320.190460,3637.120348 6317.004491,3638.542613"/>
    <poly id="214313597" type="building" color="255,230,230" fill="1" layer="-1.00" shape="5707.400995,4312.275235 5718.346276,4317.602474 5716.047261,4322.308911 5720.210576,4324.326645 5731.136760,4302.021099 5726.721758,4299.867621 5724.379676,4304.662440 5713.677735,4299.459744 5707.400995,4312.275235"/>
    <poly id="214314362" type="building" color="255,230,230" fill="1" layer="-1.00" shape="5666.367770,3818.841715 5678.315508,3834.514734 5685.832596,3829.294193 5673.092053,3813.613246 5666.367770,3818.841715"/>
    <poly id="214314363" type="building" color="255,230,230" fill="1" layer="-1.00" shape="5685.832596,3829.294193 5689.830455,3825.948039 5686.676144,3821.686724 5676.988682,3808.578589 5671.982156,3811.570521 5673.092053,3813.613246 5685.832596,3829.294193"/>
    <poly id="214314364" type="building" color="255,230,230" fill="1" layer="-1.00" shape="5676.988682,3808.578589 5674.866573,3806.536859 5681.247964,3801.860068 5695.526344,3821.497555 5689.830455,3825.948039 5686.676144,3821.686724 5676.988682,3808.578589"/>
    <poly id="214314366" type="building" color="255,230,230" fill="1" layer="-1.00" shape="5689.622996,3812.090817 5694.980984,3808.536210 5687.958750,3797.985908 5682.373600,3802.326485 5689.622996,3812.090817"/>
    <poly id="214314367" type="building" color="255,230,230" fill="1" layer="-1.00" shape="5692.149975,3797.239527 5698.171957,3805.748199 5703.745805,3802.539913 5697.731698,3793.243081 5692.149975,3797.239527"/>
    <poly id="214314368" type="parking" color="184,184,179" fill="1" layer="-1.00" shape="5794.634199,3934.017548 5787.038615,3919.253794 5807.878891,3903.464389 5756.699418,3836.441258 5735.859071,3852.230806 5729.576470,3840.266810 5746.980928,3827.296091 5738.989633,3816.658340 5793.933094,3776.385929 5811.412763,3799.774790 5849.297180,3771.688573 5906.974846,3848.458276 5794.634199,3934.017548"/>
    <poly id="218181019" type="parking" color="184,184,179" fill="1" layer="-1.00" shape="1236.873255,3425.946313 1255.147290,3419.312432 1256.948512,3424.225198 1238.674487,3430.859074 1236.873255,3425.946313"/>
    <poly id="220398785" type="water" color="181,209,209" fill="0" layer="-4.00" shape="3651.241472,5194.110886 3671.887832,5199.162985 3689.504673,5201.809903 3701.285670,5200.114819 3720.312600,5197.380024 3728.944885,5193.400693 3745.079305,5185.453273 3765.553906,5173.484840 3783.284864,5164.409546 3797.336796,5161.615429 3816.359542,5159.324911 3823.165297,5157.592681 3829.044983,5157.427900 3853.920835,5158.569440 3877.496480,5152.937371 3900.649364,5144.825543 3923.307430,5140.761136 3934.001090,5139.888456 3950.355346,5150.938880 3970.062752,5170.970150 3989.739045,5195.042244 3994.862729,5203.207707 4001.120806,5210.929070 4010.978870,5220.484086 4020.637738,5227.117383 4031.200796,5234.425635 4051.512440,5242.628461 4053.503245,5243.436140 4076.015745,5254.247267 4095.558411,5268.637536 4104.597925,5277.363144 4127.605790,5299.591983 4142.589184,5317.090725 4160.011628,5339.564791 4196.622291,5366.056846 4221.246252,5391.987630 4232.082864,5394.569466 4241.967119,5424.641302 4240.521228,5433.641852 4247.909176,5464.577398 4251.341198,5483.539696 4251.679901,5494.589369 4248.867238,5505.375030 4237.887804,5540.638019 4230.585324,5569.864315 4227.767555,5595.815082 4230.192952,5633.174408 4233.939438,5689.764008 4234.174152,5712.291995 4234.043217,5794.533349 4235.166859,5818.424474 4241.156686,5830.206723 4247.573210,5844.912950 4258.999826,5856.060165 4268.463151,5859.305831 4273.621406,5863.863743 4295.339109,5887.568185"/>
    <poly id="220406916" type="water" color="181,209,209" fill="0" layer="-4.00" shape="4160.011628,5339.564791 4110.821962,5328.226083 4077.943724,5313.261360 4045.308887,5295.812348 4029.337089,5287.096824 3998.098861,5266.508741 3974.294628,5248.924221 3954.068199,5235.437960 3929.589496,5216.947761 3913.168638,5207.550904 3893.804884,5198.114297 3874.659891,5189.590226 3861.133529,5185.184219 3842.658314,5178.021182 3833.656319,5173.193018 3824.452792,5165.676258 3816.359542,5159.324911"/>
    <poly id="220407353" type="water" color="181,209,209" fill="0" layer="-4.00" shape="909.809076,5102.188052 900.581602,5070.739416 898.326366,5060.282709 895.545437,5042.904707 892.022479,5032.735908 880.351437,5022.713048 867.615573,5005.697268 850.648413,4982.103087 835.878100,4964.380067 826.182349,4961.369828 816.693353,4960.604082 803.350573,4959.802398 789.799099,4957.866414 781.899553,4955.772226 774.273956,4948.718125 770.506331,4940.345591 777.473402,4921.248955 778.716437,4909.137450 765.120381,4902.926929 750.946004,4895.423242 731.930391,4880.713849 729.741754,4873.033258 731.956756,4853.448235 740.659030,4841.817001 746.201154,4829.923186 742.709436,4816.368731 738.030998,4808.886969 721.822508,4799.721331 705.392550,4790.786804 699.803353,4784.195824 699.697353,4771.128098 693.237172,4760.254846 680.907631,4748.416605 668.872812,4729.376106 658.459622,4710.983522 646.596175,4697.983999 634.059545,4688.441971 623.190201,4670.111807 615.395903,4660.291983 605.363228,4652.649491 594.082323,4645.006508 586.273644,4635.819381 584.410937,4632.971122 583.192718,4627.930713 582.053009,4615.352964 580.604600,4601.506748 576.553158,4595.496354 570.906819,4592.302076 562.704204,4591.914983 555.128301,4592.155419 549.796533,4589.596879 543.521014,4585.131180 541.066633,4577.881152 536.700125,4572.189804 530.736280,4568.670657 521.929996,4566.079860 514.368710,4564.744030 505.889084,4560.579842 490.591441,4543.152409 483.076708,4536.799066 475.258690,4529.499270 467.169854,4516.845939 460.045490,4502.958177 452.253681,4492.827711 438.772022,4483.266160 429.373884,4476.273705 421.276157,4464.563992 416.061215,4448.484745 410.202010,4433.665123 400.241372,4419.107222 384.336916,4398.843462 364.021682,4378.538861 349.297926,4366.456984 343.636712,4364.839192 336.398541,4363.195695 330.107997,4360.317591 325.752611,4354.304529 322.018416,4348.608071 315.742452,4344.153671 307.886238,4340.939138 296.957389,4328.892509 273.796749,4308.872674 246.260645,4283.161666 227.183862,4264.756207 203.081143,4244.417043 168.979447,4212.661821 157.429247,4199.355176 137.754359,4177.169855 125.562806,4164.800984 113.636554,4158.407300 99.448772,4156.699880 81.774351,4157.169550 57.447639,4161.030520 40.093982,4160.559604 21.769753,4162.899611 -0.719943,4172.439575 -18.778681,4180.754842 -37.120326,4184.993224 -54.771455,4182.943348 -69.239478,4177.781043 -80.192377,4168.254857 -100.365975,4083.785091 -107.498996,4045.929281 -111.848348,3996.120371 -115.304033,3964.681888 -118.474077,3932.446716 -123.699332,3889.812559 -128.899167,3845.324662 -134.452078,3809.870299 -134.566707,3793.905018 -131.555670,3785.673058 -125.868662,3777.210378 -119.120311,3769.823228 -109.073922,3752.352792 -96.796943,3725.311038 -84.265874,3699.082067 -73.641355,3676.554629 -66.542021,3660.378220 -62.359338,3641.255218 -58.149650,3619.201622 -53.942392,3597.414446 -44.985241,3582.853807 -38.259793,3577.065160 -30.170113,3569.690442 -27.420341,3561.456117 -27.555465,3546.822849 -27.953026,3531.376740 -25.171436,3519.690085 -18.895319,3505.915202 -4.535158,3484.476937 -0.420971,3472.813672 9.405288,3450.012553 17.903863,3426.666327 29.120452,3398.549239 38.653489,3379.209180 48.183053,3359.336220 53.434921,3340.489583 56.243731,3325.872363 54.204422,3314.674159 47.414918,3298.103342 34.260518,3275.623263 26.663552,3258.789685 20.780723,3230.781420 13.106650,3220.474938 4.674654,3210.028260 0.971163,3201.823295 0.116536,3191.124501 6.908525,3173.579822 13.726532,3153.215562"/>
    <poly id="220408408" type="forest" color="140,196,107" fill="0" layer="-4.00" shape="765.120381,4902.926929 750.946004,4895.423242 737.518503,4888.315104 734.284512,4882.401047 734.310633,4857.877558 752.012324,4830.787777 747.472806,4811.117599 703.232417,4783.661575 698.850177,4757.953554 681.171438,4759.032316 668.975913,4737.325905 662.893369,4729.364850 623.476932,4762.580771 705.943094,4859.345134 706.440519,4900.104233 656.143327,4940.801110 736.420206,5005.261660 766.810133,4998.484234 832.533084,4968.567511 830.965644,4966.632282 831.751114,4959.279159 845.525328,4962.649424 882.403002,5017.958458 908.574590,5034.833338 918.294029,5061.468421 916.416645,5097.220700"/>
    <poly id="220408410" type="water" color="181,209,209" fill="1" layer="-4.00" shape="954.948007,5245.222978 990.620164,5309.258433 1017.572553,5372.324330 1045.134339,5431.499331 1088.678575,5345.479973 1021.923349,5205.694450 981.866241,5151.509503 960.665089,5099.177435 936.604283,5088.394745 916.416645,5097.220700 909.809076,5102.188052 900.670759,5109.041267 890.637176,5127.776098 924.380547,5184.454926 954.948007,5245.222978"/>
    <poly id="220416647" type="water" color="181,209,209" fill="1" layer="-4.00" shape="4193.944914,5385.425587 4168.986126,5364.398643 4128.563229,5341.388733 4109.746053,5328.726250 4127.130902,5330.905675 4130.725639,5327.232810 4139.077167,5327.825175 4132.390288,5311.373435 4127.605790,5299.591983 4174.555140,5323.576095 4188.549364,5335.281186 4234.368484,5390.239921 4246.981681,5425.822812 4245.561684,5435.622949 4237.397945,5439.117784 4231.406836,5432.597823 4216.132873,5412.953383 4202.961658,5413.679272 4195.633560,5402.450166 4197.876713,5397.287555 4199.359110,5392.306229 4193.944914,5385.425587"/>
    <poly id="220800615" type="building" color="255,230,230" fill="1" layer="-1.00" shape="3679.774144,1845.993651 3688.249676,1842.911929 3694.594953,1860.236807 3686.119438,1863.318522 3679.774144,1845.993651"/>
    <poly id="221553638" type="building" color="255,230,230" fill="1" layer="-1.00" shape="7829.241541,4325.006050 7866.717454,4376.549161 7928.920084,4333.247389 7891.686004,4280.352008 7881.430083,4287.684851 7863.577063,4263.609837 7821.425811,4292.696719 7839.048902,4316.991306 7829.241541,4325.006050"/>
    <poly id="221553642" type="building" color="255,230,230" fill="1" layer="-1.00" shape="7880.795868,4239.451373 7958.058971,4184.347891 7987.731518,4224.542782 7970.411340,4237.209421 8000.057988,4279.890947 7956.550741,4308.741064 7928.006210,4268.779935 7909.777686,4281.215326 7880.795868,4239.451373"/>
    <poly id="221961739" type="building" color="255,230,230" fill="1" layer="-1.00" shape="7628.162808,4380.161837 7629.700759,4378.234758 7632.291251,4379.771178 7673.336961,4313.613551 7642.063883,4294.486165 7651.566654,4277.497670 7649.190966,4276.396423 7650.526979,4273.601324 7620.977701,4255.790636 7585.877675,4313.793998 7588.036246,4314.682064 7586.480554,4318.340876 7594.354346,4333.553511 7584.849615,4350.752994 7586.999419,4352.495821 7585.887038,4354.871347 7617.811654,4373.783138 7614.718011,4379.369026 7621.621163,4383.114523 7624.503971,4377.526476 7628.162808,4380.161837"/>
    <poly id="221961740" type="building" color="255,230,230" fill="1" layer="-1.00" shape="7623.683195,4498.751505 7664.210574,4523.369293 7688.580688,4483.563357 7648.044731,4458.945352 7623.683195,4498.751505"/>
    <poly id="221961741" type="building" color="255,230,230" fill="1" layer="-1.00" shape="7605.560715,4422.750472 7644.583299,4446.109298 7669.028414,4405.582440 7630.005686,4382.223488 7605.560715,4422.750472"/>
    <poly id="224685904" type="parking" color="184,184,179" fill="1" layer="-1.00" shape="5924.200597,4093.316579 5892.269662,4050.920566 5898.464408,4042.134392 5893.857631,4027.955545 5904.676367,4009.734665 5899.768044,4002.924453 5960.252224,3927.360333 6039.315950,4029.569042 5965.261436,4082.304205 5924.200597,4093.316579"/>
    <poly id="224685904#1" type="commercial" color="209,209,204" fill="1" layer="-3.00" shape="5924.200597,4093.316579 5892.269662,4050.920566 5898.464408,4042.134392 5893.857631,4027.955545 5904.676367,4009.734665 5899.768044,4002.924453 5960.252224,3927.360333 6039.315950,4029.569042 5965.261436,4082.304205 5924.200597,4093.316579"/>
    <poly id="224686101" type="building" color="255,230,230" fill="1" layer="-1.00" shape="7833.072091,3057.379477 7832.828931,3014.534569 7896.077219,3014.185419 7896.320014,3057.030334 7833.072091,3057.379477"/>
    <poly id="230056183" type="building" color="255,230,230" fill="1" layer="-1.00" shape="7388.339217,3812.052172 7402.588910,3810.121691 7398.468200,3780.004422 7399.783011,3775.155204 7402.544883,3770.676034 7407.107037,3766.670439 7413.097880,3764.833223 7413.482673,3762.672276 7421.312907,3761.608796 7420.826627,3758.017898 7436.115436,3755.942671 7438.941045,3776.587867 7450.116220,3775.070125 7452.243004,3790.634593 7439.851509,3792.317528 7442.519981,3811.828722 7389.296745,3819.056178 7388.339217,3812.052172"/>
    <poly id="230056183#1" type="tourism" color="207,245,201" fill="1" layer="-2.00" shape="7388.339217,3812.052172 7402.588910,3810.121691 7398.468200,3780.004422 7399.783011,3775.155204 7402.544883,3770.676034 7407.107037,3766.670439 7413.097880,3764.833223 7413.482673,3762.672276 7421.312907,3761.608796 7420.826627,3758.017898 7436.115436,3755.942671 7438.941045,3776.587867 7450.116220,3775.070125 7452.243004,3790.634593 7439.851509,3792.317528 7442.519981,3811.828722 7389.296745,3819.056178 7388.339217,3812.052172"/>
    <poly id="236456123" type="building" color="255,230,230" fill="1" layer="-1.00" shape="4125.947423,2385.944850 4146.240884,2439.109857 4161.463656,2432.730780 4140.476031,2380.680229 4125.947423,2385.944850"/>